#ITI#Evaluating the Arc-SWAT2009 in predicting runoff, sediment, and nutrient yields from a vineyard and an olive orchard in Central Italy#FTI#
#IRE#The ArcSWAT2009 model with an improved sub-model (SWAT-GC) was used to assess plant growth to evaluate sediment and nutrient runoff yields from an alternating grass-covered/tilled inter-row vineyard (VP) and from disk harrowing (DH) and grass cover (GC) management techniques in an olive orchard in Castelfiorentino (Florence), Tuscany, Italy. The model was calibrated for field plots (0.11 to 0.12. ha) using runoff volume and composition measured from January 2010 to December 2010 and validated using measured data from January 2011 to August 2013. The results obtained with the SWAT-GC were compared with those obtained with the standard model (SWAT) calibrated in situ. Daily performance of the calibrated SWAT model in simulating runoff, sediment, and nutrient yields for all treatments was good or very good according to the Nash-Sutcliffe model efficiency (NSE), the mean percentage error (M%E), and the median-based root mean square error (RSR). However, based on validation results, daily performance of the SWAT model was unsatisfactory. On the contrary, the SWAT-GC model provided very good predictions of average daily runoff and soil and nutrient loss during both the calibration and validation periods. Moreover, results indicate that SWAT-GC model is capable of adequately modeling differences in nutrient yields between the different tillage practices by calibrating crop growth, runoff, and sediment yields only. In fact, calibration for N and P resulted in identical calibration parameters regardless of tillage practice on olive orchard. © 2015 Elsevier B.V.#FRE#
#IPC#Central Italy; Erosion; Runoff quality; SWAT#FPC#
#IRF#Aguilera F., Ruiz L., Fornaciari M., Romano B., Galan C., Oteros J., Ben Dhiab A., Msallem M., Orlandi F., Heat accumulation period in the Mediterranean region: phenological response of the olive in different climate areas (Spain, Italy and Tunisia), Int. J. Biometeorol., (2013); 
Allen R.G., Pereira L.S., Raes D., Smith M., Crop evapotranspiration: guidelines for computing crop water requirements, FAO Irrigation and Drainage Paper No. 56, (1998); 
Allison L.E., Moodie C.D., Carbonate: volumetric calcimeter method, Methods of Soil Analysis. Part 2. Chemical and Microbiological Methods, (1965); 
Standard Methods for the Examination of Water and Wastewater, (1998); 
Bruggeman A., van der Meijden G., Assessment of water use in a small watershed in Northern Syria using SWAT, Proceedings of the Third International SWAT Conference, pp. 50-60, (2005); 
Cerdan O., Govers G., Le Bissonnais Y., Van Oost K., Poesen J., Saby N., Gobin A., Vacca A., Quinton J., Auerswald K., Klik A., Kwaad F.J.P.M., Raclot D., Ionita I., Rejman J., Rousseva S., Muxart T., Roxo M.J., Dostal T., Rates and spatial variations of soil erosion in Europe: a study based on erosion plot data, Geomorphology, 122, pp. 167-177, (2010); 
Chu T.W., Shirmohammadi A., Evaluation of the SWAT model's hydrology component in the Piedmont physiographic region of Maryland, Trans. ASAE, 47, 4, pp. 1057-1073, (2004); 
Chu T.W., Shirmohammadi A., Montas H., Sadeghi A., Evaluation of the SWAT model's sediment and nutrient components in the Piedmont physiographic region of Maryland, Trans. ASAE, 47, 5, pp. 1523-1538, (2004); 
Di Luzio M., Arnold J.G., Formulation of a hybrid calibration approach for a physically based distributed model with NEXRAD data input, J. Hydrol., 298, 1-4, pp. 136-154, (2004); 
Di Luzio M., Srinivason R., Arnold J.R., Neitsch S.L., Arcview Interface for SWAT2000: User's Guide, (2002); 
Douglas-Mankin K.R., Maski D., Janssen K.A., Tuppad P., Pierzynski G.M., Modeling nutrient runoff yields from combined in-field crop management practices using SWAT, Trans. ASABE, 53, 5, pp. 1557-1568, (2010); 
Fernandez J.E., Moreno F., Giron I.F., Blazquez O.M., Stomatal control of water use in olive tree leaves, Plant Soil, 190, pp. 179-192, (1997); 
Fisher D.S., Steiner J.L., Endale D.M., Stuedemann J.A., Schomberg H.H., Franzluebbers A.J., Wilkinson S.R., The relationship of land use practices to surface water quality in the Upper Oconee watershed of Georgia, For. Ecol. Manage., 128, pp. 39-48, (2000); 
Franklin D.H., Cabrera M.L., Steiner J.L., Endale D.M., Miller W.P., Evaluation of percent flow captured by a small in-field runoff collector, Trans. ASAE, 44, pp. 551-554, (2001); 
Gassman P., Reyes M., Green C., Arnold J.G., The soil and water assessment tool: historical development, applications, and future research directions, Trans. ASABE, 50, 4, pp. 1211-1250, (2007); 
Gomez J.A., Sobrinho T., Giraldez J.V., Fereres E., Soil management effects on runoff, erosion and soil properties in an olive grove of Southern Spain, Soil Till. Res., 102, pp. 5-13, (2009); 
Green W.H., Ampt G.A., Studies on soil physics: 1. The flow of air and water through soils, J. Agric. Sci., 4, pp. 11-24, (1911); 
Giorio P., Sorrentino G., d'Andria R., Stomatal behaviour, leaf water status and photosynthetic response in field-grown olive trees under water deficit, Environ. Exp. Bot., 42, pp. 95-104, (1999); 
Hooke J.M., Human impacts on fluvial systems in the Mediterranean region, Geomorphology, 79, 3-4, pp. 311-315, (2006); 
Istituto Nazionale di Statistica-Agriculture and Livestock-Permanent Crops 2012, (2012); 
Jeong J., Kannan N., Arnold J., Glick R., Gosselink L., Srinivasan R., Development and integration of sub-hourly rainfall-runoff modeling capability within a watershed model, Water Resour. Manage., 24, 15, pp. 4505-4527, (2010); 
King K.W., Arnold J., Binger R., Comparison of Green-Ampt and Curve Number methods on Goodwin Creek watershed using SWAT, Trans. ASABE, 42, 4, pp. 919-925, (1999); 
Kiniry J.R., Williams J.R., Gassman P.W., Debaeke P., A general process-oriented model for two competing plant species, Trans. Am. Soc. Agric. Eng., 35, pp. 801-810, (1992); 
Kirsch K.J., Predicting sediment and phosphorus loads in the Rock River basin using SWAT, ASAE Paper No. 002175, (2000); 
Kirsch K.J., Kirsch A., Arnold J.G., Predicting sediment and phosphorus loads in the Rock River basin using SWAT, Trans. ASAE, 45, 6, pp. 1757-1769, (2002); 
Kosmas C.S., Moustakas N., Danalatos N.G., Yassoglou N., The Spata field site. 1. The impacts of land use and management on soil properties and erosion. 2. The effects of reduced moisture on soil properties and wheat production, Mediterranean Desertification and Land Use, pp. 207-228, (1996); 
Kosmas C., Danalatos N., Cammeraat L.H., Chabart M., Diamantopoulos J., Farand R., Gutierrez L., Jacob A., Marques H., Martinez-Fernandez J., Mizara A., Moustakas N., Nicolau J.M., Oliveros C., Pinna G., Puddu R., Puigdefabregas J., Roxo M., Simao A., Stamou G., Tomasi N., Usai D., Vacca A., The effect of land use on runoff and soil erosion rates under Mediterranean conditions, Catena, 29, pp. 45-59, (1997); 
Lenat D.R., Crawford J.K., Effects of land use on water quality and aquatic biota of three North Carolina Piedmont streams, Hydrobiologia, 294, pp. 185-200, (1994); 
Mankin K.R., Ward A.D., Boone K.M., Quantifying changes in soil physical properties from soil and crop management, Trans. ASAE, 39, 6, pp. 2065-2074, (1996); 
Mankin K.R., Koelliker J.K., Kalita P.K., Watershed and lake water quality assessment: an integrated modeling approach, J. Am. Water Resour. Assoc., 35, 5, pp. 1069-1080, (1999); 
Martinez-Casasnovas J.A., Ramos M.C., Benites G., Soil and water assessment tool soil loss simulation at the sub-basin scale in the Alt Penedès-Anoia vineyard region (NE Spain) in the 2000, Land Degrad. Dev., (2013); 
Mayer D.G., Butler D.G., Statistical validation, Ecol. Model., 68, 1-2, pp. 21-32, (1993); 
Matejovic I., Determination of carbon and nitrogen in samples of various soils by the dry combustion, Commun. Soil Sci. Plant Anal., 28, pp. 1499-1511, (1997); 
Mein R.G., Larson C.L., Modeling infiltration during a steady rain, Water Resour. Res., 9, 2, pp. 384-394, (1973); 
Monsi M., Saeki T., Über den Lichtfaktor in den Pflanzengesellschaften und seine Bedeutung für die Stoffproduktion, Jpn. J. Bot., 14, pp. 22-52, (1953); 
Monteith J.L., Climate and the efficiency of crop production in Britain, Phil. Trans. R. Soc. Lond. Ser. B, 281, pp. 277-294, (1977); 
Moriasi D.N., Arnold J.G., Van Liew M.W., Bingner R.L., Harmel R.D., Veith T.L., Model evaluation guidelines for systematic quantification of accuracy in watershed simulations, Trans. ASABE, 50, 3, pp. 885-900, (2007); 
Murphy J., Riley I.P., A modified single solution method for the determination of phosphate in natural waters, Anal. Chim. Acta, 27, pp. 31-36, (1962); 
Napoli M., Olandini S., Grifoni D., Zanchi C.A., Modeling soil and nutrient runoff yields from an Italian vineyard using SWAT, Trans. ASABE, 56, 6, pp. 1397-1406, (2013); 
Nash J.E., Sutcliffe J.V., River flow forecasting through conceptual models: Part I. A discussion of principles, J. Hydrol., 10, 3, pp. 282-290, (1970); 
Neitsch S.L., Arnold J.G., Kiniry J.R., Williams J.R., Soil and Water Assessment Tool: Theoretical Documentation. Ver. 2005, (2005); 
Neitsch S.L., Arnold J.G., Kiniry J.R., Williams J.R., Soil and Water Assessment Tool theoretical documentation version 2009, (2011); 
Ojeda J.L., Métodos topogràficos, (1984); 
Olsen S.R., Sommers L.E., Phosphorus, Methods of soil analysis. Part 2. Agronomy Monogr. 9, pp. 403-430, (1982); 
Ouessar M., Bruggeman A., Abdelli F., Mohtar R.H., Gabriels D., Cornelis W.M., Modelling water-harvesting systems in the arid south of Tunisia using SWAT, Hydrol. Earth Syst. Sci., 13, pp. 2003-2021, (2009); 
Potter C., Hiatt S., Modeling river flows and sediment dynamics for the Laguna de Santa Rosa watershed in Northern California, J. Soil Water Conser., 64, pp. 383-393, (2009); 
Ramos M.C., Martinez-Casasnovas J.A., Impact of land levelling on soil moisture and runoff variability in vineyards under different rainfall distributions in a Mediterranean climate and its influence on crop productivity, J. Hydrol., 321, pp. 131-146, (2006); 
Rostamian R., Jaleh A., Afyuni M., Mousavi S.F., Heidarpour M., Jalalian A., Abbaspour K.C., Application of a SWAT model for estimating runoff and sediment in two mountainous basins in central Iran, Hydrol. Sci. J., 53, pp. 977-988, (2008); 
Saleh A., Du B., Evaluation of SWAT and HSPF within BASINS program for the Upper North Bosque river watershed in central Texas, Trans. ASAE, 47, 4, pp. 1039-1049, (2004); 
Saleh A., Williams J.R., Wood J.C., Hauck L.M., Blackburn W.H., Application of APEX for forestry, Trans. ASAE, 47, 3, pp. 751-765, (2004); 
Santi C., Certini G., D'Acqui L.P., Direct determination of organic carbon by dry combustion in soils with carbonates, Commun. Soil Sci. Plant Anal., 37, pp. 155-162, (2006); 
Keys to Soil Taxonomy, (2010); 
Spitters C.J.T., Aerts R., Simulation of competition for light and water in crop-weed associations, Aspects Appl. Biol., 4, pp. 467-483, (1983); 
Theocharopoulos S.P., Florou H., Walling D.E., Kalantzakos H., Christou M., Tountas P., Nikolaou T., Soil erosion and deposition rates in a cultivated catchment area in central Greece, estimated using the 137Cs technique, Soil Till. Res., 69, pp. 153-162, (2003); 
Villalobos F.J., Testi L., Hidalgo J., Pastor M., Orgaz F., Modelling potential growth and yield of olive (Olea europaea L.) canopies, Eur. J. Agron., 24, pp. 296-303, (2006); 
Williams J.R., Sediment routing for agricultural watersheds, Water Resour. Bull., 11, 5, pp. 965-974, (1975); 
Williams J.R., The EPIC model, Computer Models of Watershed Hydrology, pp. 909-1000, (1995); 
Williams J.R., Jones C.A., Kiniry J.R., Spanel D.A., The EPIC crop growth model, Trans. ASAE, 32, pp. 497-511, (1989); 
Wischmeier W.H., Johnson C.B., Cross B.V., A soil erodibility nomograph for farmland and construction sites, J. Soil Water Conserv., 26, pp. 189-193, (1971); 
Withers P.J.A., Nash D.M., Laboski C.A.M., Environmental management of phosphorus fertilizers, Phosphorus: Agriculture and Environment. Agronomy Monograph 46, pp. 781-827, (2005); 
Zanchi C.A., Cecchi C., Napoli M., La Carta del rischio erosivo per l'uso sostenibile del territorio agricolo del Chianti, Agricoltura ed erosione del suolo in Toscana, pp. 91-134, (2010)#FRF#
