#ITI#Development of a pathogen transport model for Irish catchments using SWAT#FTI#
#IRE#SWAT (Soil and Water Assessment Tool) represents a dynamic catchment modelling application that can be applied to any river basin and used to quantify the impact of land management practices on water quality over a continuous period. The objective of this study is to apply the Soil and Water Assessment Tool (SWAT) to model pathogen transport, simulate management practices affecting water quality and predict pathogen loads in Irish catchments. Based on input data regarding agricultural practice, demographics and hydrological parameters for the river Fergus catchment, SWAT was run to predict concentrations of Escherichia coli. Hydrometric validation results display a very good linear relationship between observed and predicted data (Coefficient of determination R2 = 0.83, Nash-Sutcliffe efficiency E = 0.78) and indicate satisfactory simulation of hydrologic processes within the catchment. To date, pathogen predictions have proved variable between observed and simulated figures. Based on recommended values for the quantification of catchment modelling accuracy, predictions for E. coli can be described as acceptable and satisfactory with R2 = 0.68 and E = 0.59. Extensive monitoring is required for such simulations and the current study represents partial validation. Results suggest that although the capabilities exist to simulate pathogen transport in catchments, the capacity to accurately account for all factors that can contribute to water degradation is uncertain. The sensitivity analysis identified the bacteria partition coefficient (BACTKDDB) as the most important input parameter. In addition it reveals areas where further research is required, particularly in assessing the initial concentration of E. coli in human/animal waste. The developed model provides a tool capable of protecting water sources and human health from waterborne pathogens. © 2009 Elsevier B.V. All rights reserved.#FRE#
#IPC#ArcSWAT; Escherichia coli; Pathogen transport#FPC#
#IRF#Abraham L.Z., Roehrig J., Chekol D.A., Calibration and validation of SWAT hyrologic model for Meki watershed, Ethiopia, Presented at the Conference on International Agricultural Research for Development, (2007); 
Arabi M., Govindaraju R.S., Hantush M.M., Engel B.A., Role of watershed subdivision on modelling the effectiveness of best management practices with SWAT, Agric. Wat. Manage., 42, 2, pp. 513-528, (2006); 
Arnold J.G., Fohrer N., Current capabilities and research opportunities in applied watershed modelling, Hydrol. Processes, 19, pp. 563-572, (2005); 
Baffaut C., Arnold J.R., Schumacher J.S., Fecal coliform fate and transport simulation with SWAT, Presented at 2nd International SWAT Conference, (2003); 
Baffaut C., Benson V.W., A bacteria TMDL for Shoal Creek using SWAT modeling and DNA source tracking, Total Maximum Daily Load TMDL Environmental Regulations II. ASAE Proceedings, (2003); 
Bord na Mona, Wastewater Treatment Ireland, (2008); 
Agriculture Livestock and Farm Numbers, (2005); 
2006 Census of Population, (2006); 
Chin D.A., Sakura-Lemessy D., Bosch D.D., Gay P.A., Watershed-scale fate and transport of bacteria, Trans. ASABE, 52, 1, pp. 145-154, (2009); 
Coffey R., Cummins E., Cormican M., O' Flaherty V., Kelly S., Microbial exposure assessment of waterborne pathogens, Hum. Ecol. Risk Assess., 13, 6, pp. 1313-1351, (2007); 
Collins R., Rutherford K., Modelling bacterial water quality in streams draining pastoral land, Wat. Res., 38, pp. 700-712, (2004); 
Cork P., Wastewater Treatment Systems for Single Houses (The Cavan Experience), (2007); 
Crowther J., Wyer M.D., Bradford M., Kay D., Francis C.A., Modelling faecal indicator concentrations in large rural catchments using land use and topographic data, J. Appl. Microbiol., 94, pp. 962-973, (2003); 
Crowther J., Kay D., Wyer M.D., Faecal-indicator concentrations in waters draining lowland pastoral catchments in the UK: relationships with land use and farming practices, Wat. Res., 36, pp. 1725-1734, (2002); 
Cummins E., Nally P., Butler F., Duffy G., O'Brien S., Development and validation of a probabilistic second-order exposure assessment model for Escherichia coli O157:H7 contamination of beef trimmings from Irish meat plants, Meat. Sci., 79, pp. 139-154, (2008); 
DeGuise K., Mostaghimi S., Bacterial Die-off Rate Constant and Partitioning Coefficient Determination, Report Prepared for the Virginia Department of Conservation and Recreation, (2000); 
Calculation of Stocking Density for purposes of two Livestock Units per Forage Hectare Limit for Special Beef Premium and Suckler Cow Premium, (2008); 
Feedlot Waste Management Series: Manure Production Data, (2003); 
Dorner S.M., Anderson W.B., Slawson M.N., Kouwen N., Huck P.M., Hydrologic modeling of pathogen fate and transport, Environ. Sci. Technol., 40, pp. 4746-4753, (2006); 
Fegan N., Vanderlinde P., Higgs G., Desmarchelier P., The prevalence and concentration of Escherichia coli O157 in faeces of cattle from different production systems at slaughter, J. Appl. Microbiol., 97, pp. 362-370, (2004); 
Foppen J.W.A., Schijven J.F., Evaluation of data from the literature on the transport and survival of Escherichia coli and thermotolerant coliforms in aquifers under saturated conditions, Wat. Res., 40, 3, pp. 401-426, (2006); 
Gagliardi J.V., Karns J.S., Leaching of Escherichia coli O157:H7 in diverse soils under various agricultural management practices, Appl. Environ. Microbiol., 66, pp. 877-883, (2000); 
George I., Crop P., Servais P., Fecal coliform removal in wastewater treatment plants studied by plate counts and enzymatic methods, Wat. Res., 36, pp. 2607-2617, (2002); 
Geldreich E.E., Applying bacteriological parameters to recreational water quality, J. Am. Wat. Assoc., 6, pp. 113-120, (1970); 
Guber A.K., Pachepsky Y.A., Shelton D.R., Yu O., Effect of bovine manure on fecal coliform attachment to soil and soil particles of different sizes, Appl. Environ. Microbiol., 73, 10, pp. 3363-3370, (2007); 
Hutchison M.L., Walters L.D., Avery S.M., Synge B.A., Moore A., Levels of zoonotic agents in British livestock manures, Lett. Appl. Microbiol., 39, pp. 207-214, (2004); 
Jamieson R., Gordon R., Joy D., Lee H., Assessing microbial pollution of rural surface waters: a review of current watershed scale modeling approaches, Agric. Wat. Manage., 70, pp. 1-17, (2004); 
Jamieson R.C., Joy D.M., Lee H., Kostaschuk R., Gordon R.J., Resuspension of sediment-associated Escherichia coli in a natural stream, Environ. Qual., 34, 2, pp. 581-589, (2005); 
Kang M.S., Park S.W., Lee J.J., Yoo K.H., Applying SWAT for TMDL programs to a small watershed containing rice paddy fields, Agric. Wat. Manage., 79, pp. 72-92, (2006); 
Linnane S., Jordan S.N., McCarthy V., O'Donohoe J., Carson A., Wynne C.A., Sweeney N.F., Wagner S., Minet E., Rafferty P., Cullen G., Bacik H.C., Source Protection for Group Water Schemes, (2008); 
Legates D.R., McCabe G.J., Evaluating the use of "goodness-of-fit" measures in hydrologic and hydroclimatic model validation, Wat. Resour. Res., 35, 1, pp. 233-241, (1999); 
Mara D., Horan N.J., Handbook of Water and Wastewater Microbiology, Academic Press, ISBN 0124701000, 9780124701007, (2003); 
Mawdsley J.L., Bardgett R.D., Merry R.J., Pain B.F., Theodorou M.K., Pathogens in livestock waste, their potential for movement through soil and environmental pollution, Appl. Soil. Ecol., 2, pp. 1-15, (1995); 
Meals D.W., Braun D.C., Demonstration of methods to reduce E. coli runoff from dairy manure application sites, Environ. Qual., 35, pp. 1088-1100, (2006); 
Moriasi D.N., Arnold J.G., Van Liew M.W., Bingner R.L., Harmel R.D., Veith T.L., Model evaluation guidelines for systematic quantification of accuracy in watershed simulations, Trans. ASABE, 50, 3, pp. 885-900, (2007); 
Morris M.D., Factorial sampling plans for preliminary computational experiments, Tecnometrics, 33, 2, (1991); 
Muirhead R.W., Collins R.P., Bremer P.J., Interaction of Escherichia coli and soil particles in runoff, Appl. Environ. Microbiol., 72, 5, pp. 3406-3411, (2006); 
Nash J.E., Sutcliffe J.V., River flow forecasting through conceptual models part I-a discussion of principles, J. Hydrol., 10, 3, pp. 282-290, (1970); 
US Natural Resources Conservation Service Soil Survey Staff, National Soil Survey Handbook, Title 430-VI, (1996); 
Novotny V., Water Quality, Diffuse Pollution and Watershed Management, (2003); 
Obiri-Danso K., Jones K., Distribution and seasonality of microbial indicators and thermophilic campylobacters in two freshwater bathing sites on the River Lune in northwest England, J. Appl. Microbiol., 87, pp. 822-832, (1999); 
Pandey V.K., Panda S.N., Sudhakar S., Modelling of an agricultural watershed using remote sensing and a geographic information system, Biosyst. Eng., 90, 3, pp. 331-333, (2005); 
Parajuli P.B., SWAT Bacteria sub-model evaluation and application. An Abstract of a dissertation submitted in partial fulfillment of the requirements for the degree of Doctor of Philosophy, (2007); 
Parajuli P.B., Mankin K.R., Barnes P.L., Source specific fecal bacteria modelling using soil and water assessment tool model, Biores. Technol., 100, pp. 953-963, (2009); 
Paul S., Haan P., Matlock M., Mukhtar S., Pillai S., Analysis of the HSPF water quality parameter uncertainty in predicting peak in-stream fecal coliform concentrations, Trans. ASAE, 47, 1, pp. 69-78, (2004); 
Payment P., Plante R., Cejka P., Removal of indicator bacteria, human enteric viruses, Giardia cysts, and Cryptosporidium oocysts at a large wastewater primary treatment facility, Can. J. Microbiol., 47, pp. 188-193, (2001); 
Romanowicz A.A., Vanclooster M., Rounsevell M., La Junesse I., Sensitivity of the SWAT model to the soil and land use data parametrisation: a case study in the Thyle catchment, Belgium, Ecoll. Mod., 187, pp. 27-39, (2005); 
Rosen B.H., Waterborne Pathogens in Agricultural Watersheds. (NRAES-147). Natural Resource, Agriculture, and Engineering Service (NRAES), (2000); 
Sadeghi A., Arnold J.G., A SWAT/microbial submodel for predicting pathogen loadings in surface and groundwater at watershed and basin scales, Total Maximum Daily Load (TMDL) Environmental Regulations, Proceedings of the March 11-13, 2002 Conference, pp. 56-63, (2002); 
Santhi C., Arnold J.G., Williams J.R., Dugas W.A., Srinivasan R., Hauck L.M., Validation of the SWAT model on a large river basin with point and non-point sources, J. Am. Wat. Resour. Assoc., 37, 5, pp. 1169-1188, (2001); 
Shoemaker L., Dai T., Koenig J., TMDL Model Evaluation and Research Needs, (2005); 
Smith K.A., Frost J.P., Nitrogen excretion by farm livestock with respect to land spreading requirements and controlling nitrogen losses to ground and surface waters. Part 1: cattle and sheep, Biores. Technol., 71, pp. 173-181, (2000); 
Srinivasan R., ArcSWAT ArcGIS Interface for Soil and Water Assessment Tool, (2008); 
Stanfield G., Gale P., Assessment of the Risks to Food Safety Associated with the Spreading of Animal Manure and Abattoir Waste on Agricultural Land, Final Report to the Food Standards Agency, (2002); 
Sturdee A.P., Bodley-Tickell A.T., Archer A., Chalmers R.M., Long-term study of Cryptosporidium prevalence on a lowland farm in the United Kingdom, Vet. Parasit., 116, pp. 97-113, (2003); 
Tian Y.T., Gong P., Radke J.D., Scarborough J., Spatial and temporal modeling of microbial contaminants on grazing farmlands, J. Environ. Qual., 31, pp. 860-869, (2002); 
Thurston-Enriquez J.A., Gilley J.E., Eghball B., Microbial quality of runoff following land application of cattle manure and swine slurry, J. Wat. Health, 3, 2, pp. 157-171, (2005); 
Unc A., Goss M.J., Transport of bacteria from manure and protection of water resources, Appl. Soil Ecol., 25, pp. 1-18, (2004); 
Van Liew M.W., Veith T.L., Bosch D.D., Arnold J.G., Suitability of SWAT for the conservation effects assessment project: a comparison on USDA-ARS experimental watersheds, J. Hydrol. Eng., 12, 2, pp. 173-189, (2007); 
van Griensven A., Multiobjective autocalibration for semidistributed water quality models, Wat. Resour. Res., 39, 12, pp. 1348-1356, (2003); 
van Griensven A., Meixner T., Grunwald S., Bishop T., Diluzio M., Srinivasan R., A global sensitivity analysis tool for the parameters of multi-variable catchment models, J. Hydrol., 324, 1-4, pp. 10-23, (2006)#FRF#
